@<TRIPOS>MOLECULE
ethyl prop-2-enoate
   15    14     0     0     0
SMALL
USER_CHARGES

@<TRIPOS>ATOM
      1 C1          5.3640    1.8938   -0.5183 C.3       1 <0>         0.1362
      2 C2          5.8528    3.3095   -0.7387 C.3       1 <0>        -0.1009
      3 C3          1.0741   -0.1512   -0.0294 C.2       1 <0>        -0.1512
      4 C4          1.8907    0.8902   -0.2132 C.2       1 <0>        -0.2020
      5 C5          3.3534    0.6854   -0.2533 C.2       1 <0>         0.6382
      6 O1          3.9342    1.8996   -0.4501 O.3       1 <0>        -0.4516
      7 O2          3.9201   -0.3890   -0.1312 O.2       1 <0>        -0.5081
      8 H1          5.7600    1.4927    0.4195 H         1 <0>         0.0457
      9 H2          5.6749    1.2472   -1.3443 H         1 <0>         0.0457
     10 H3          6.9444    3.3409   -0.7958 H         1 <0>         0.0481
     11 H4          5.4384    3.7212   -1.6648 H         1 <0>         0.0481
     12 H5          5.5227    3.9629    0.0758 H         1 <0>         0.0481
     13 H6         -0.0047   -0.0469    0.0066 H         1 <0>         0.1261
     14 H7          1.4848   -1.1483    0.0904 H         1 <0>         0.1261
     15 H8          1.4930    1.8917   -0.3334 H         1 <0>         0.1515
@<TRIPOS>BOND
     1    1    2 1
     2    3    4 2
     3    4    5 1
     4    5    6 1
     5    5    7 2
     6    1    6 1
     7    1    8 1
     8    1    9 1
     9    2   10 1
    10    2   11 1
    11    2   12 1
    12    3   13 1
    13    3   14 1
    14    4   15 1
